Circuit: * C:\Users\RCCol\OneDrive\Documents\git\LTSpiceCircuits\LTSpiceCircuits\Two Rock John Mayer\JM Analysis.asc

WARNING: Less than two connections to node NC_01.  This node is used by R58.
Direct Newton iteration failed to find .op point.  (Use ".option noopiter" to skip.)
Starting Gmin stepping
Gmin = 10
Gmin = 1.07374
Gmin = 0.115292
vernier = 0.5
vernier = 0.25
vernier = 0.125
Gmin = 0.0816268
vernier = 0.0625
vernier = 0.03125
vernier = 0.015625
vernier = 0.0078125
Gmin = 0.0820798
vernier = 0.00390625
vernier = 0.00195313
vernier = 0.000976563
vernier = 0.000488281
Gmin = 0.0820297
Gmin = 0
Gmin stepping succeeded in finding the operating point.

.step wiper=0.1
.step wiper=0.2
.step wiper=0.3
.step wiper=0.4
.step wiper=0.5
.step wiper=0.6
.step wiper=0.7
.step wiper=0.8
.step wiper=0.9
.step wiper=1

Date: Tue Oct 16 15:42:25 2018
Total elapsed time: 9.115 seconds.

tnom = 27
temp = 27
method = trap
totiter = 1588
traniter = 0
tranpoints = 0
accept = 0
rejected = 0
matrix size = 303
fillins = 352
Matrix Compiler1:    2019 opcodes
Matrix Compiler2: 30.40 KB object code size  6.6/7.7/[4.2]

