Circuit: * C:\Users\RCCol\OneDrive\Documents\git\LTSpiceCircuits\LTSpiceCircuits\Two Rock John Mayer\JM Analysis.asc

WARNING: Less than two connections to node NC_01.  This node is used by R58.
Direct Newton iteration failed to find .op point.  (Use ".option noopiter" to skip.)
Starting Gmin stepping
Gmin = 10
Gmin = 1.07374
Gmin = 0.115292
vernier = 0.5
vernier = 0.25
Gmin = 0.0335813
vernier = 0.125
vernier = 0.0625
vernier = 0.03125
vernier = 0.015625
Gmin = 0.032437
vernier = 0.0078125
vernier = 0.00390625
vernier = 0.00195313
vernier = 0.000976563
Gmin = 0.0323579
vernier = 0.000488281
Singular matrix:  Check nodes e:u23:3#branch and u23:5
   Iteration No. 35
Gmin = 0
Singular matrix:  Check nodes e:u23:3#branch and u23:5
   Iteration No. 1
Gmin stepping failed

Starting source stepping with srcstepmethod=0
Source Step = 3.0303%
Source Step = 33.3333%
Source Step = 63.6364%
Source Step = 93.9394%
Source stepping succeeded in finding the operating point.

.step wiper=0.1
.step wiper=0.2
.step wiper=0.3
.step wiper=0.4
.step wiper=0.5
.step wiper=0.6
.step wiper=0.7
.step wiper=0.8
.step wiper=0.9
.step wiper=1

Date: Thu Oct 11 13:12:40 2018
Total elapsed time: 12.305 seconds.

tnom = 27
temp = 27
method = trap
totiter = 1688
traniter = 0
tranpoints = 0
accept = 0
rejected = 0
matrix size = 302
fillins = 1672
Matrix Compiler1:   14563 opcodes
Matrix Compiler2: 56.56 KB object code size  6.7/7.6/[3.9]

