Circuit: * C:\Users\ryan\Documents\GitHub\LTSpiceCircuits\Two Rock John Mayer\JM Analysis.asc

WARNING: Node NC_01 is floating.

WARNING: Less than two connections to node NC_01.  This node is used by C5.
Early termination of direct N-R iteration.
Direct Newton iteration failed to find .op point.  (Use ".option noopiter" to skip.)
Starting Gmin stepping
Increasing initial diagonal Gmin to 100
Gmin = 100
Gmin = 10.7374
vernier = 0.5
Gmin = 2.0016
vernier = 0.25
vernier = 0.125
vernier = 0.0625
vernier = 0.03125
Gmin = 2.03919
vernier = 0.015625
vernier = 0.0078125
vernier = 0.0104167
Gmin = 2.01414
vernier = 0.0138889
Gmin = 1.95396
vernier = 0.0185185
vernier = 0.0246913
Gmin = 1.85933
vernier = 0.0329218
vernier = 0.0438957
Gmin = 1.71886
vernier = 0.0585276
Gmin = 1.51356
vernier = 0.0780367
vernier = 0.104049
Gmin = 1.22994
vernier = 0.138732
vernier = 0.184976
Gmin = 0.887056
vernier = 0.246634
Gmin = 0.524641
vernier = 0.328846
vernier = 0.438461
Gmin = 0.225158
vernier = 0.584614
vernier = 0.292307
vernier = 0.146154
vernier = 0.0730768
Gmin = 0.156093
vernier = 0.0974357
vernier = 0.129914
Gmin = 0.122231
vernier = 0.173219
Gmin = 0.0834047
vernier = 0.230959
vernier = 0.307945
Gmin = 0.0442667
vernier = 0.410593
vernier = 0.547457
Gmin = 0.0164293
vernier = 0.729942
Gmin = 0.00359757
vernier = 0.973256
vernier = 0.486628
vernier = 0.243314
Gmin = 0.00107955
vernier = 0.121657
vernier = 0.0608285
vernier = 0.0304143
vernier = 0.0152071
Gmin = 0.00100241
vernier = 0.00760356
vernier = 0.00380178
vernier = 0.00190089
vernier = 0.000950445
Gmin = 0.00100003
vernier = 0.000475223
Singular matrix:  Check nodes e:u23:3#branch and u21:4
   Iteration No. 12
Gmin = 0
Singular matrix:  Check nodes e:u23:3#branch and u21:4
   Iteration No. 1
Gmin stepping failed

Starting source stepping with srcstepmethod=0
Source Step = 3.0303%
Source Step = 33.3333%
Source Step = 63.6364%
Source Step = 93.9394%
Source stepping succeeded in finding the operating point.

.step wiper=0.1
.step wiper=0.2
.step wiper=0.3
.step wiper=0.4
.step wiper=0.5
.step wiper=0.6
.step wiper=0.7
.step wiper=0.8
.step wiper=0.9
.step wiper=1

Date: Fri Nov 18 19:32:24 2022
Total elapsed time: 15.025 seconds.

tnom = 27
temp = 27
method = trap
totiter = 3155
traniter = 0
tranpoints = 0
accept = 0
rejected = 0
matrix size = 300
fillins = 1454
solver = Normal
Matrix Compiler1:   12053 opcodes
Matrix Compiler2: 44.84 KB object code size  4.5/5.2/[2.7]

