Circuit: * C:\Users\ryan\Documents\GitHub\LTSpiceCircuits\Two Rock John Mayer\JM Analysis.asc

WARNING: Less than two connections to node B+3.  This node is used by R62.
Early termination of direct N-R iteration.
Direct Newton iteration failed to find .op point.  (Use ".option noopiter" to skip.)
Starting Gmin stepping
Gmin = 10
Gmin = 1.07374
Gmin = 0.115292
Gmin = 0.0123794
Gmin = 0.00132923
Gmin = 0.000142725
Gmin = 1.5325e-005
Gmin = 1.6455e-006
Gmin = 1.76685e-007
Gmin = 1.89714e-008
Gmin = 2.03704e-009
Gmin = 2.18725e-010
Gmin = 2.34854e-011
Gmin = 2.52173e-012
Gmin = 2.70769e-013
Gmin = 0
Gmin stepping succeeded in finding the operating point.

.step wiper=0.1
.step wiper=0.2
.step wiper=0.3
.step wiper=0.4
.step wiper=0.5
.step wiper=0.6
.step wiper=0.7
.step wiper=0.8
.step wiper=0.9
.step wiper=1

Date: Fri Nov 18 18:08:19 2022
Total elapsed time: 4.586 seconds.

tnom = 27
temp = 27
method = trap
totiter = 303
traniter = 0
tranpoints = 0
accept = 0
rejected = 0
matrix size = 304
fillins = 759
solver = Normal
Matrix Compiler1:    4432 opcodes
Matrix Compiler2:    2537 opcodes  6.0/[6.2]/78.3

