http transferring http://tdsl.duncanamps.com/dcigna/tubes/spice/6l6gc.inc to C:\Users\ryan\Documents\GitHub\LTSpiceCircuits\Two Rock John Mayer\6l6gc.inc
Circuit: * C:\Users\ryan\Documents\GitHub\LTSpiceCircuits\Two Rock John Mayer\JM Analysis.asc

WARNING: Less than two connections to node NC_01.  This node is used by R58.
Direct Newton iteration failed to find .op point.  (Use ".option noopiter" to skip.)
Starting Gmin stepping
Gmin = 10
vernier = 0.5
vernier = 0.25
Gmin = 3.42672
vernier = 0.125
vernier = 0.0625
vernier = 0.03125
vernier = 0.015625
Gmin = 3.50314
vernier = 0.0078125
vernier = 0.00390625
vernier = 0.00195313
vernier = 0.000976563
Gmin = 3.50483
vernier = 0.000488281
Gmin = 0
Gmin stepping succeeded in finding the operating point.

.step wiper=0.1
.step wiper=0.2
.step wiper=0.3
.step wiper=0.4
.step wiper=0.5
.step wiper=0.6
.step wiper=0.7
.step wiper=0.8
.step wiper=0.9
.step wiper=1

Date: Sat Mar 28 08:05:44 2020
Total elapsed time: 8.231 seconds.

tnom = 27
temp = 27
method = trap
totiter = 1409
traniter = 0
tranpoints = 0
accept = 0
rejected = 0
matrix size = 302
fillins = 285
solver = Normal
Matrix Compiler1:    1722 opcodes
Matrix Compiler2: 25.31 KB object code size  4.2/6.0/[2.8]

