Circuit: * C:\Users\ryan\Documents\GitHub\pedal-wiring-diagrams\DUMBLE_A_BOX_LATER_RESEARCH\BOX_A_LATOR_LTSPICE\box-a-lator.asc

WARNING: Less than two connections to node OUT.  This node is used by R6.
Early termination of direct N-R iteration.
Direct Newton iteration failed to find .op point.  (Use ".option noopiter" to skip.)
Starting Gmin stepping
Gmin = 10
vernier = 0.5
vernier = 0.25
vernier = 0.125
Gmin = 5.5165
vernier = 0.0625
vernier = 0.03125
vernier = 0.015625
vernier = 0.0078125
Gmin = 5.49501
vernier = 0.00390625
vernier = 0.00195313
vernier = 0.000976563
vernier = 0.000488281
Gmin = 5.50104
Gmin = 0
Gmin stepping succeeded in finding the operating point.

.step gain=0
.step gain=0.1
.step gain=0.2
.step gain=0.3
.step gain=0.4
.step gain=0.5
.step gain=0.6
.step gain=0.7
.step gain=0.8
.step gain=0.9
.step gain=1

Date: Thu Mar 14 14:08:39 2024
Total elapsed time: 1.615 seconds.

tnom = 27
temp = 27
method = trap
totiter = 1434
traniter = 0
tranpoints = 0
accept = 0
rejected = 0
matrix size = 64
fillins = 189
solver = Normal
Matrix Compiler1:     711 opcodes
Matrix Compiler2: 8.26 KB object code size  1.3/2.0/[0.7]

