Circuit: * C:\Users\ryan\Documents\GitHub\LTSpiceCircuits\Dumble FET\Dumble FET.asc

Direct Newton iteration for .op point succeeded.

Date: Mon Jun 29 16:02:28 2020
Total elapsed time: 0.129 seconds.

tnom = 27
temp = 27
method = trap
totiter = 7
traniter = 0
tranpoints = 0
accept = 0
rejected = 0
matrix size = 12
fillins = 0
solver = Normal
Matrix Compiler1:      33 opcodes
Matrix Compiler2: 840 bytes object code size
