Circuit: * C:\Users\ryan\Documents\GitHub\LTSpiceCircuits\Dumble Steel String Singer sn002\Reference\Deluxe\Fender Deluxe AB763.asc

WARNING: Less than two connections to node NC_01.  This node is used by R51.
WARNING: Less than two connections to node NC_02.  This node is used by R:U33:1.
Direct Newton iteration for .op point succeeded.
Ignoring empty pin current: Ix(u16:ctl1)
Ignoring empty pin current: Ix(u16:ctl1)
.step pos=1
.step pos=2
.step pos=3
.step pos=4
.step pos=5
.step pos=6
.step pos=7

Date: Thu Apr 16 16:14:44 2020
Total elapsed time: 0.457 seconds.

tnom = 27
temp = 27
method = trap
totiter = 15
traniter = 0
tranpoints = 0
accept = 0
rejected = 0
matrix size = 182
fillins = 326
solver = Normal
Matrix Compiler1:    2027 opcodes
Matrix Compiler2: 21.21 KB object code size
