Circuit: * C:\Users\ryan\Documents\GitHub\LTSpiceCircuits\Dumble Steel String Singer sn002\Reference\Deluxe\SSS No 002.asc

WARNING: Node N051 is floating.

WARNING: Less than two connections to node NC_01.  This node is used by R60.
WARNING: Less than two connections to node NC_02.  This node is used by R:U33:1.
Direct Newton iteration for .op point succeeded.

Date: Fri Apr 17 04:36:16 2020
Total elapsed time: 0.154 seconds.

tnom = 27
temp = 27
method = trap
totiter = 20
traniter = 0
tranpoints = 0
accept = 0
rejected = 0
matrix size = 195
fillins = 383
solver = Normal
Matrix Compiler1:    2400 opcodes
Matrix Compiler2: 23.30 KB object code size
