Circuit: * C:\Users\ryan\Documents\GitHub\LTSpiceCircuits\Dumble Steel String Singer sn002\Draft3.asc


Date: Tue May 25 15:46:34 2021
Total elapsed time: 0.102 seconds.

tnom = 27
temp = 27
method = trap
totiter = 0
traniter = 0
tranpoints = 0
accept = 0
rejected = 0
matrix size = 2
fillins = 0
solver = Normal

