Circuit: * C:\Users\ryan\Documents\GitHub\LTSpiceCircuits\Dumble Steel String Singer sn002\Draft2.asc

WARNING: Less than two connections to node NC_01.  This node is used by R:U1:1.

Date: Tue Jun 15 13:08:38 2021
Total elapsed time: 0.329 seconds.

tnom = 27
temp = 27
method = trap
totiter = 0
traniter = 0
tranpoints = 0
accept = 0
rejected = 0
matrix size = 3
fillins = 0
solver = Normal

