Circuit: * C:\Users\ryan\Documents\GitHub\LTSpiceCircuits\Dumble Steel String Singer sn002\SSS No 002.asc

WARNING: Node N050 is floating.

WARNING: Less than two connections to node NC_01.  This node is used by R:U32:2.
WARNING: Less than two connections to node NC_02.  This node is used by R60.
WARNING: Less than two connections to node NC_03.  This node is used by R:U33:1.
Direct Newton iteration failed to find .op point.  (Use ".option noopiter" to skip.)
Starting Gmin stepping
Gmin = 10
Gmin = 1.07374
Gmin = 0.115292
Gmin = 0.0123794
Gmin = 0.00132923
Gmin = 0.000142725
Gmin = 1.5325e-05
Gmin = 1.6455e-06
Gmin = 1.76685e-07
Gmin = 1.89714e-08
Gmin = 2.03704e-09
Gmin = 2.18725e-10
Gmin = 2.34854e-11
Gmin = 2.52173e-12
Gmin = 2.70769e-13
Gmin = 0
Gmin stepping succeeded in finding the operating point.

.step pos=1
.step pos=2
.step pos=3
.step pos=4
.step pos=5
.step pos=6
.step pos=7

Date: Fri Apr 17 05:01:01 2020
Total elapsed time: 1.286 seconds.

tnom = 27
temp = 27
method = trap
totiter = 436
traniter = 0
tranpoints = 0
accept = 0
rejected = 0
matrix size = 195
fillins = 275
solver = Normal
Matrix Compiler1:    1779 opcodes
Matrix Compiler2: 21.44 KB object code size  3.4/4.3/[2.0]

