Circuit: * C:\Users\ryan\Documents\GitHub\LTSpiceCircuits\Dumble Steel String Singer sn002\SSS No 002.asc

WARNING: Node N051 is floating.

WARNING: Less than two connections to node NC_01.  This node is used by R:U32:2.
WARNING: Less than two connections to node NC_02.  This node is used by R60.
WARNING: Less than two connections to node NC_03.  This node is used by R:U33:1.
Early termination of direct N-R iteration.
Direct Newton iteration failed to find .op point.  (Use ".option noopiter" to skip.)
Starting Gmin stepping
Gmin = 10
Gmin = 1.07374
Gmin = 0.115292
Gmin = 0.0123794
Gmin = 0.00132923
Gmin = 0.000142725
Gmin = 1.5325e-005
Gmin = 1.6455e-006
Gmin = 1.76685e-007
Gmin = 1.89714e-008
Gmin = 2.03704e-009
Gmin = 2.18725e-010
Gmin = 2.34854e-011
Gmin = 2.52173e-012
Gmin = 2.70769e-013
Gmin = 0
Gmin stepping succeeded in finding the operating point.


Date: Mon May 18 16:24:32 2020
Total elapsed time: 0.365 seconds.

tnom = 27
temp = 27
method = trap
totiter = 363
traniter = 0
tranpoints = 0
accept = 0
rejected = 0
matrix size = 196
fillins = 316
solver = Normal
Matrix Compiler1:    2016 opcodes
Matrix Compiler2: 22.24 KB object code size  4.2/4.0/[2.0]

