http transferring http://tdsl.duncanamps.com/dcigna/tubes/spice/6l6gc.inc to C:\Users\ryan\Documents\GitHub\LTSpiceCircuits\Dumble Steel String Singer sn004\6l6gc.inc
Circuit: * C:\Users\ryan\Documents\GitHub\LTSpiceCircuits\Dumble Steel String Singer sn004\JM Analysis.asc

WARNING: Less than two connections to node NC_01.  This node is used by R58.
Direct Newton iteration failed to find .op point.  (Use ".option noopiter" to skip.)
Starting Gmin stepping
Gmin = 10
vernier = 0.5
vernier = 0.25
Gmin = 3.42672
vernier = 0.125
vernier = 0.0625
vernier = 0.03125
vernier = 0.015625
Gmin = 3.50314
vernier = 0.0078125
vernier = 0.00390625
vernier = 0.00195313
vernier = 0.000976563
Gmin = 3.50569
vernier = 0.000488281
Gmin = 0
Singular matrix:  Check nodes e:u23:3#branch and u23:5
   Iteration No. 23
Gmin stepping failed

Starting source stepping with srcstepmethod=0
Source Step = 3.0303%
Source Step = 33.3333%
Source Step = 63.6364%
Source Step = 93.9394%
Source stepping succeeded in finding the operating point.

.step wiper=0.1
.step wiper=0.2
.step wiper=0.3
.step wiper=0.4
.step wiper=0.5
.step wiper=0.6
.step wiper=0.7
.step wiper=0.8
.step wiper=0.9
.step wiper=1

Date: Tue May 25 15:53:35 2021
Total elapsed time: 9.186 seconds.

tnom = 27
temp = 27
method = trap
totiter = 1637
traniter = 0
tranpoints = 0
accept = 0
rejected = 0
matrix size = 302
fillins = 561
solver = Normal
Matrix Compiler1:    3788 opcodes
Matrix Compiler2: 30.02 KB object code size  3.6/4.8/[2.1]

