Circuit: * C:\Users\ryan\Documents\GitHub\LTSpiceCircuits\Super-Puss\Draft1.asc

C7: Increased Cpar to 1e-015
C6: Increased Cpar to 4.7e-012
C5: Increased Cpar to 2.2e-016
C4: Increased Cpar to 2.2e-010
C3: Increased Cpar to 2.2e-010
C2: Increased Cpar to 2.2e-010
WARNING: Node NC_01 is floating.
WARNING: Node NC_02 is floating.

WARNING: Less than two connections to node NC_01.  This node is used by C7.
WARNING: Less than two connections to node NC_02.  This node is used by C9.
Direct Newton iteration for .op point succeeded.

Date: Mon Nov 06 12:59:51 2023
Total elapsed time: 0.099 seconds.

tnom = 27
temp = 27
method = modified trap
totiter = 2139
traniter = 2131
tranpoints = 1047
accept = 1047
rejected = 0
matrix size = 19
fillins = 0
solver = Normal
Matrix Compiler1: 894 bytes object code size  0.4/0.2/[0.2]
Matrix Compiler2: 1.33 KB object code size  0.2/0.2/[0.1]

